iidm/iidm-xml-converter/src/test/resources/batterie-STATE.xiidm
<?xml version="1.0" encoding="UTF-8"?>
<iidm:network xmlns:iidm="http://www.itesla_project.eu/schema/iidm/1_0" id="fictitious" caseDate="2017-06-25T17:43:00.000+01:00" forecastDistance="0" sourceFormat="test">
    <iidm:substation id="P1">
        <iidm:voltageLevel id="VLGEN">
            <iidm:generator id="GEN" p="-605.0" q="-225.0"></iidm:generator>
        </iidm:voltageLevel>
    </iidm:substation>
    <iidm:substation id="P2">
        <iidm:voltageLevel id="VLBAT">
            <iidm:battery id="BAT" p="-605.0" q="-225.0"></iidm:battery>
            <iidm:battery id="BAT2" p="-605.0" q="-225.0"></iidm:battery>
        </iidm:voltageLevel>
    </iidm:substation>
</iidm:network>
